Version 4.1
SHEET 1 1628 704
WIRE 880 -160 880 -176
WIRE 880 -64 880 -80
WIRE 880 -64 656 -64
WIRE 880 -32 880 -64
WIRE 96 -16 -16 -16
WIRE 160 -16 96 -16
WIRE -16 32 -16 -16
WIRE 96 32 96 -16
WIRE 656 48 656 -64
WIRE 880 80 880 48
WIRE 1152 80 880 80
WIRE 1152 96 1152 80
WIRE 880 112 880 80
WIRE 96 128 96 96
WIRE -16 144 -16 112
WIRE 1152 208 1152 176
WIRE 1152 304 1152 272
WIRE -16 320 -16 304
WIRE 192 320 -16 320
WIRE -16 336 -16 320
WIRE 448 352 416 352
WIRE 656 400 656 112
WIRE 736 400 656 400
WIRE -16 432 -16 416
WIRE 656 432 656 400
WIRE 736 432 736 400
WIRE 880 432 736 432
WIRE 192 464 192 384
WIRE 416 464 416 352
WIRE 416 464 192 464
WIRE 656 512 656 496
FLAG -16 144 0
FLAG 160 -16 3.3
FLAG -16 224 3.3
FLAG 768 0 3.3
FLAG 768 160 0
FLAG 1152 304 0
FLAG -16 432 0
FLAG 880 -176 1.65
FLAG 448 352 1.65
FLAG 656 512 0
FLAG 304 272 3.3
FLAG 304 432 0
FLAG 96 128 0
SYMBOL voltage -16 16 R0
WINDOW 123 0 0 Left 0
WINDOW 39 0 0 Left 0
SYMATTR InstName V1
SYMATTR Value 3.3
SYMBOL res -32 208 R0
SYMATTR InstName R1
SYMATTR Value {wc(1k,tolr,7)}
SYMBOL res -32 320 R0
SYMATTR InstName R2
SYMATTR Value {wc(1k,tolr,8)}
SYMBOL cap 640 432 R0
SYMATTR InstName C1
SYMATTR Value {wc(0.1u,tolc,6)}
SYMBOL res 864 -48 R0
SYMATTR InstName R4
SYMATTR Value {wc(1k,tolr,1)}
SYMBOL res 864 -176 R0
SYMATTR InstName R5
SYMATTR Value {wc(1k,tolr,0)}
SYMBOL LED 1136 208 R0
SYMATTR InstName D1
SYMATTR Value RED
SYMBOL res 1136 80 R0
SYMATTR InstName R6
SYMATTR Value 1k
SYMBOL cktsym\\opamprails 752 80 R0
SYMATTR InstName U2
SYMBOL cktsym\\opamprails 288 352 R0
SYMATTR InstName U1
SYMBOL cap 80 32 R0
SYMATTR InstName C2
SYMATTR Value 1µ
SYMBOL res 864 96 R0
SYMATTR InstName R3
SYMATTR Value {wc(2Meg,tolr,2)}
SYMBOL res 864 176 R0
SYMATTR InstName R7
SYMATTR Value {wc(2Meg,tolr,3)}
SYMBOL res 864 256 R0
SYMATTR InstName R8
SYMATTR Value {wc(499k,tolr,4)}
SYMBOL res 864 336 R0
SYMATTR InstName R9
SYMATTR Value {wc(49.9k,tolr,5)}
TEXT -216 512 Left 2 !.model RED D(Is=3.835E-20 N=1.803 Rs=3)
TEXT -216 536 Left 2 !.tran 0 5 .13 .1s startup
TEXT -216 560 Left 2 !.func wc(nom,tol,index) if(run==numruns,nom,if(binary(run,index),nom*(1+tol),nom*(1-tol)))
TEXT -216 592 Left 2 !.func binary(run,index) floor(run/(2**index))-2*floor(run/(2**(index+1)))
TEXT -216 616 Left 2 !.step param run 0 256 1
TEXT -216 640 Left 2 !.param numruns=256
TEXT -216 664 Left 2 !.param tolr=0.01
TEXT -216 688 Left 2 !.param tolc=0.05
